test/data/case9_acdc_2000MVAdc_4000MVAac.m
function mpc = case9_acdc
	%% MATPOWER Case Format : Version 2
	mpc.version = '2';

	%%-----  Power Flow Data  -----%%
	%% system MVA base
	mpc.baseMVA = 2000;

	%% bus data
	%column_names%	bus_i	type	Pd		Qd		Gs		Bs		area	Vm		Va		baseKV	zone	Vmax	Vmin
	mpc.bus = [
					101		3		0		0		0		0		1		1		0		345		1		1.1		0.9;
					102		2		0		0		0		0		1		1		0		345		1		1.1		0.9;
					103		2		0		0		0		0		1		1		0		345		1		1.1		0.9;
					104		1		0		0		0		0		1		1		0		345		1		1.1		0.9;
					105		1		900		300		0		0		1		1		0		345		1		1.1		0.9;
					106		1		0		0		0		0		1		1		0		345		1		1.1		0.9;
					107		1		1000	350		0		0		1		1		0		345		1		1.1		0.9;
					108		1		0		0		0		0		1		1		0		345		1		1.1		0.9;
					109		1		1250	500		0		0		1		1		0		345		1		1.1		0.9;
					110		1		0		0		0		0		1		1		0		345		1		1.1		0.9;

					201		3		0		0		0		0		2		1		0		345		1		1.1		0.9;
					202		2		0		0		0		0		2		1		0		345		1		1.1		0.9;
					203		2		0		0		0		0		2		1		0		345		1		1.1		0.9;
					204		1		0		0		0		0		2		1		0		345		1		1.1		0.9;
					205		1		900		300		0		0		2		1		0		345		1		1.1		0.9;
					206		1		0		0		0		0		2		1		0		345		1		1.1		0.9;
					207		1		1000	350		0		0		2		1		0		345		1		1.1		0.9;
					208		1		0		0		0		0		2		1		0		345		1		1.1		0.9;
					209		1		1250	500		0		0		2		1		0		345		1		1.1		0.9;
					210		1		0		0		0		0		2		1		0		345		1		1.1		0.9;

					301		2		0		0		0		0		3		1		0		345		1		1.1		0.9;

					401		2		0		0		0		0		4		1		0		345		1		1.1		0.9;
	];

	%% generator data
	%column_names%	bus		Pg		Qg		Qmax	Qmin	Vg		mBase	status	Pmax	Pmin	Pc1		Pc2		Qc1min	Qc1max	Qc2min	Qc2max	ramp_agc	ramp_10		ramp_30		ramp_q	apf
	mpc.gen = [		
					101		0		0		6000	-6000	1		2000	1		5000	10		0		0		0		0		0		0		0		 	0		 	0		 	0		0;
					102		6520	0		6000	-6000	1		2000	1		6000	10		0		0		0		0		0		0		0		 	0		 	0		 	0		0;
					103		3400	0		6000	-6000	1		2000	1		5400	10		0		0		0		0		0		0		0		 	0		 	0		 	0		0;

					201		0		0		6000	-6000	1		2000	1		5000	10		0		0		0		0		0		0		0		 	0		 	0		 	0		0;
					202		6520	0		6000	-6000	1		2000	1		6000	10		0		0		0		0		0		0		0		 	0		 	0		 	0		0;
					203		3400	0		6000	-6000	1		2000	1		5400	10		0		0		0		0		0		0		0		 	0		 	0		 	0		0;

					301		987		0		2000	-2000	1		2000	1		1974	10		0		0		0		0		0		0		0		 	0		 	0		 	0		0;

					401		987		0		2000	-2000	1		2000	1		1974	10		0		0		0		0		0		0		0		 	0		 	0		 	0		0;
	];

	%% branch data
	%column_names%	fbus	tbus	r		x		b		rateA	rateB	rateC	ratio	angle	status	angmin	angmax
	mpc.branch = [
					101		104		0		0.0288	0		5000	5000	5000	0		0		1		-60		60;
					104		105		0.0085	0.046	0.079	5000	5000	5000	0		0		1		-60		60;
					105		106		0.0195	0.085	0.179	3000	3000	3000	0		0		1		-60		60;
					103		106		0		0.0293	0		6000	6000	6000	0		0		1		-60		60;
					106		107		0.00595	0.0504	0.1045	3000	3000	3000	0		0		1		-60		60;
					107		108		0.00425	0.036	0.0745	5000	5000	5000	0		0		1		-60		60;
					108		102		0		0.03125	0		5000	5000	5000	0		0		1		-60		60;
					108		109		0.016	0.0805	0.153	5000	5000	5000	0		0		1		-60		60;
					109		104		0.005	0.0425	0.088	5000	5000	5000	0		0		1		-60		60;
					
					201		204		0		0.0288	0		5000	5000	5000	0		0		1		-60		60;
					204		205		0.0085	0.046	0.079	5000	5000	5000	0		0		1		-60		60;
					205		206		0.0195	0.085	0.179	3000	3000	3000	0		0		1		-60		60;
					203		206		0		0.0293	0		6000	6000	6000	0		0		1		-60		60;
					206		207		0.00595	0.0504	0.1045	3000	3000	3000	0		0		1		-60		60;
					207		208		0.00425	0.036	0.0745	5000	5000	5000	0		0		1		-60		60;
					208		202		0		0.03125	0		5000	5000	5000	0		0		1		-60		60;
					208		209		0.016	0.0805	0.153	5000	5000	5000	0		0		1		-60		60;
					209		204		0.005	0.0425	0.088	5000	5000	5000	0		0		1		-60		60;

					107		110		0.0085	0.046	0.079	5000	5000	5000	0		0		1		-60		60;
					207		210		0.0085	0.046	0.079	5000	5000	5000	0		0		1		-60		60;
	];

	%%-----  OPF Data  -----%%
	%% generator cost data
	%column_names%	1	startup	shutdown	n	x1	y1	...	xn	yn
	%column_names%	2	startup	shutdown	n	c(n-1)	...	c0
	mpc.gencost = [
					2	1500	0			3	0.11	5		150;
					2	2000	0			3	0.085	1.2		600;
					2	3000	0			3	0.1225	1		335;

					2	1500	0			3	0.11	5		150;
					2	2000	0			3	0.085	1.2		600;
					2	3000	0			3	0.1225	1		335;

					2	1000	0			3	0.001	0.5		10;

					2	1000	0			3	0.001	0.5		10;
	];

	%% dc grid topology
    % dc poles
    % numbers of poles (1 = monopolar grid, 2 = bipolar grid)
    mpc.dcpol = 2;

	%% dc bus data
	%column_names%	busdc_i		grid	Pdc     Vdc     basekVdc    Vdcmax  Vdcmin  Cdc
    mpc.busdc = [
        			1			1		0       1       525         1.1     0.9     0;
        			2			1       0       1       525         1.1     0.9     0;
        			3			1       0       1       525         1.1     0.9     0;
        			4			1       0       1       525         1.1     0.9     0;
    ];

	%% ac/dc converters
    %column_names%	busdc_i		busac_i		type_dc		type_ac		P_g		Q_g		islcc	Vtar	rtf			xtf			transformer		tm		bf		filter	rc		xc		reactor		basekVac	Vmmax	Vmmin	Imax	status	LossA	LossB	LossCrec	LossCinv	droop		Pdcset		Vdcset		dVdcset		Pacmax	Pacmin	Qacmax	Qacmin
    mpc.convdc = [
        			1			110			3			1			0		0		0		1		0.00381		0.11437		1				1		0 		0 		0		0		0			345			1.1		0.9		1.1		1       1.103 	0.887  	2.885    	2.885		0.005		1			1			0 			2000 	-2000	2000	-2000;
        			2			210			3			1			1000	0		0		1		0.00381		0.11437		1				1		0 		0 		0		0		0			345			1.1		0.9		1.1		1       1.103 	0.887  	2.885    	2.885		0.005		1			1			0 			2000 	-2000	2000	-2000;
        			3			301			3			1			-987	0		0		1		0.00381		0.09531		1				1		0 		0 		0		0		0			345			1.1		0.9		1.1		1       1.103 	0.887  	2.885    	2.885		0.005		1			1			0 			2000 	-2000	2000	-2000;
        			4			401			3			1			-987	0		0		1		0.00381		0.09531		1				1		0 		0 		0		0		0			345			1.1		0.9		1.1		1       1.103 	0.887  	2.885    	2.885		0.005		1			1			0 			2000 	-2000	2000	-2000;
    ];

	%% dc branches
    %column_names%	fbusdc	tbusdc	r		l	c	rateA	rateB	rateC	status
    mpc.branchdc = [
        			1		2       0.01305	0	0	6000	6000	6000	1;
        			2		3       0.01305	0	0	6000	6000	6000	1;
        			3       4       0.01305	0	0	6000	6000	6000	1;
        			4       1       0.01305	0	0	6000	6000	6000	1;
        			1       3       0.01305	0	0	6000	6000	6000	1;
    ];
	